Version 4
SHEET 1 1708 2548
WIRE -560 -416 -784 -416
WIRE -320 -416 -560 -416
WIRE -240 -416 -320 -416
WIRE 192 -416 -240 -416
WIRE 288 -416 192 -416
WIRE -240 -304 -240 -416
WIRE 192 -304 192 -416
WIRE 48 -288 -192 -288
WIRE 144 -288 48 -288
WIRE -560 -256 -560 -416
WIRE -320 -256 -320 -416
WIRE -240 -256 -320 -256
WIRE 288 -256 288 -416
WIRE 288 -256 192 -256
WIRE -240 -160 -240 -208
WIRE 192 -160 192 -208
WIRE -784 -64 -784 -416
WIRE -240 0 -240 -160
WIRE 192 0 192 -160
WIRE 32 48 -240 48
WIRE 192 48 32 48
WIRE -288 80 -480 80
WIRE 416 80 240 80
WIRE 32 128 32 48
WIRE -240 208 -240 96
WIRE 32 208 -240 208
WIRE 192 208 192 96
WIRE 192 208 32 208
WIRE -560 240 -560 -176
WIRE -336 240 -560 240
WIRE -560 256 -560 240
WIRE 32 256 32 208
WIRE -560 304 -640 304
WIRE 160 304 32 304
WIRE -336 336 -336 240
WIRE -336 336 -512 336
WIRE -16 336 -336 336
WIRE -784 400 -784 16
WIRE -640 400 -640 304
WIRE -640 400 -784 400
WIRE -560 400 -560 352
WIRE -560 400 -640 400
WIRE -288 400 -560 400
WIRE 32 400 32 352
WIRE 32 400 -288 400
WIRE 160 400 160 304
WIRE 160 400 32 400
FLAG 32 128 0
FLAG -288 400 0
FLAG 32 208 tail
FLAG -480 80 V+
IOPIN -480 80 In
FLAG 416 80 V-
IOPIN 416 80 In
FLAG -240 -160 Vo-
IOPIN -240 -160 Out
FLAG 192 -160 Vo+
IOPIN 192 -160 Out
FLAG 48 -288 Vcmfb
IOPIN 48 -288 In
SYMBOL nmos4 -288 0 R0
WINDOW 123 -228 115 Left 2
WINDOW 0 -43 32 Left 2
WINDOW 3 -104 65 Left 2
SYMATTR Value2 l=0.5u w=7u m=2
SYMATTR InstName M1
SYMATTR Value tsmc35n
SYMBOL nmos4 240 0 M0
WINDOW 123 -233 120 Left 2
WINDOW 0 -40 19 Left 2
WINDOW 3 -109 50 Left 2
SYMATTR Value2 l=0.5u w=7u m=2
SYMATTR InstName M2
SYMATTR Value tsmc35n
SYMBOL pmos4 -192 -208 R180
WINDOW 123 56 4 Left 2
WINDOW 0 59 71 Left 2
WINDOW 3 -110 50 Left 2
SYMATTR Value2 l=0.5u w=17u m=4
SYMATTR InstName M3
SYMATTR Value tsmc35p
SYMBOL pmos4 144 -208 M180
WINDOW 123 56 4 Left 2
WINDOW 0 73 67 Left 2
WINDOW 3 -109 50 Left 2
SYMATTR Value2 l=0.5u w=17u m=4
SYMATTR InstName M4
SYMATTR Value tsmc35p
SYMBOL current -560 -256 R0
WINDOW 123 0 0 Left 0
WINDOW 39 0 0 Left 0
SYMATTR InstName I1
SYMATTR Value 250µ
SYMBOL nmos4 -16 256 R0
WINDOW 123 56 100 Left 2
SYMATTR Value2 l=0.5u w=6.09u m=2
SYMATTR InstName M5
SYMATTR Value tsmc35n
SYMBOL nmos4 -512 256 M0
WINDOW 123 56 100 Left 2
SYMATTR Value2 l=0.5u w=5u m=2
SYMATTR InstName M6
SYMATTR Value tsmc35n
SYMBOL voltage -784 -80 R0
WINDOW 123 0 0 Left 0
WINDOW 39 0 0 Left 0
SYMATTR InstName V1
SYMATTR Value 3.3
TEXT -1080 176 Left 2 !.ac dec 10 10 1G
TEXT -240 472 Left 2 !.op
TEXT -464 -648 Left 2 !.lib C:\\Users\\ACER\\Desktop\\tsmc350nm.txt
